*****************************************************************
* Nexperia 2N7002NXAK
*
* Polarity N-Channel
* Ratings 60V/3.000000E+000OHMS/0.19A
*
* Created on 2019-07-01 14:26:04 

*
****************************************************************
* Please visit www.nexperia.com for latest revision release

*
****************************************************************
* Model generated by Nexperia

* Copyright(c) 2018

* All rights reserved
*
* Contains proprietary information which is the property of Nexperia.
*
****************************************************************



.SUBCKT 2N7002NXAK DRAIN GATE SOURCE

LD DRAIN 5 4e-10
RLD2 DRAIN 5 1.00530964914873
RLD1 5 4 0.0023
LG GATE 1 8.81711084834576e-10
RLG GATE 1 2.21598165336399
LS SOURCE 8 1.28299790790991e-09
RLS2 SOURCE 8 3.22452544164868
RLS1 8 7 0.0548513610286835

RDS 7 4 32432432432.4324 TC=-0.005

RS 6 7 0.0001

RD 3 4 2.4096661760153 TC=0.00697041491750412,1.27495650403094E-05
RBD 9 4 0.475573258027411 TC=0.00697041491750412,1.27495650403094E-05
DBD 7 9 DBD

M1 3 2 6 6 MINT

RGS 2 6 35499387.6355633
CGS 2 6 9.34e-12
RG 1 2 21.3470486389713

* CGD
C11    11   12   1E-12
V11    11   0   0Vdc
G11    3 2 VALUE { V(13, 0)*I(V11) }
E11    12   0  3 2  1
E12    13   0  TABLE {V(12)}
+ -20	4.4
+ -12	4.7
+ -10	4.75
+ -8	4.74
+ -5	5.34
+ -4	5.76
+ -3	6.51
+ -2	8.03
+ -1	7.24
+ -0.5	6.01
+ -0.2	5.25
+ -0.1	5.06
+ 0	4.88
+ 0.1	4.68
+ 0.2	4.45
+ 0.5	3.67
+ 1	2.83
+ 2	2.3
+ 3	2.04
+ 4	1.88
+ 5	1.78
+ 6	1.68
+ 8	1.56
+ 10	1.47
+ 12	1.39
+ 15	1.3
+ 20	1.2
+ 30	1.07
+ 40	0.981
+ 60	0.874



.MODEL MINT NMOS(Vto=1.69024695423674 Kp=2.392063e-001 Nfs=750000000000 Eta=0
+ Level=3 L=1e-4 W=1e-4 Gamma=0 Phi=0.6 Is=1e-24
+ Js=0 Pb=0.8 Cj=0 Cjsw=0 Cgso=0 Cgdo=0 Cgbo=0
+ Tox=1e-07 Xj=0
+ U0=600 Vmax=1000)

.MODEL DBD D(Bv=76.7 Ibv=2.500000E-004 Rs=1E-6 Is=3.41078850609469e-14
+ N=1 M=0.31 VJ=0.5 Fc=0.5 Cjo=6.61e-12 Tt=1.85e-08)

.ENDS

