********************************************************************************************************
*
* Nexperia PMV15ENEA
* Polarity N - Channel
* Ratings 30V/15.0mOhm/20A
* Revision N#: 1.0
* Created on 2019-04-23 09:56:14
* Please visit www.nexperia.com for latest revision release
*
********************************************************************************************************
*
* Model generated by Nexperia
* Copyright(c) 2018
* All rights reserved
*
* Contains proprietary information which is the property of Nexperia.
*
********************************************************************************************************

.SUBCKT PMV15ENEA D G S

* Package impedance
LD D 5 100.0p
RLD2 D 5 251.3m
RLD1 5 4 200.0u
LG G 1 963.8p
RLG G 1 2.422
LS S 8 1.064n
RLS2 S 8 2.674
RLS1 8 7 4.608m

* Drain,gate and source resistances
RD 3 4 7.756m TC= 3.624m,1.002n
RG 1 2 2.000
RS 6 7 1.000u

* Body Diode
RBD 9 4 8.275m TC= 4.000m,23.00u
DBD 7 9 D_DBD
RDS 7 4 4.038G TC= -5.000m

* Internal MOS
M1 3 2 6 6 MINT

* Gate leakage and gate capacitance
RGS 2 6 3.565MEG
CGS 2 6 363.0p

* CGD
C11 11 12 1E-12
V11 11 0 0Vdc
G11 3 2 VALUE {V(13,0)*I(V11)}
E11 12 0 3 2 1
E12 13 0 TABLE {V(12)}
+ (-10.0,814.0) (-2.2,814.0) (0.0,317.09499999999997) (0.1,303.57) (0.2,289.92) (0.5,250.51) (1.0,198.38) (2.0,143.25) (3.0,120.33999999999999) (4.0,108.54999999999998) (5.0,101.13000000000001) (6.0,95.877) (8.0,88.531) (10.0,83.321) (12.0,79.26699999999998) (24.0,65.399)

.MODEL MINT NMOS Vto= 1.747 Kp= 45.01 Nfs= 236.1G Eta= 0.000
+ Level= 3 Gamma= 0.000 Phi= 600.0m Is= 1.000E-24 UO= 600.0
+ Js= 0.000 Pb= 800.0m Cj= 0.000 Cjsw= 0.000 Cgso= 0.000 Cgdo= 0.000 Cgbo= 0.000
+ Tox= 100.0n Xj= 0.000
+ Vmax= 1.127K

.MODEL D_DBD D Bv= 34.08 Ibv= 250.0u Rs= 1.000u Is= 875.0f
+ N= 1.000 M= 444.2m VJ= 200.1m Fc= 500.0m Cjo= 720.0p Tt= 18.50n

.ENDS PMV15ENEA

********************************************************************************************************
* - Limited warranty and liability -
*
* Information in this document is believed to be accurate and reliable. However,Nexperia does not give
* any representations or warranties,expressed or implied,as to the accuracy or completeness of such
* information and shall have no liability for the consequences of use of such information.
* Nexperia takes no responsibility for the content in this document if provided by an information source
* outside of Nexperia. In no event shall Nexperia be liable for any indirect,incidental,punitive,
* special or consequential damages (including - without limitation - lost profits,lost savings,
* business interruption,costs related to the removal or replacement of any products or rework charges)
* whether or not such damages are based on tort (including negligence),warranty,breach of contract or
* any other legal theory. Notwithstanding any damages that customer might incur for any reason whatsoever,
* Nexperia's aggregate and cumulative liability towards customer for the products described herein shall
* be limited in accordance with the Terms and conditions of commercial sale of Nexperia.
*
********************************************************************************************************