Version 4
SHEET 1 1652 680
WIRE 288 -256 288 -288
WIRE 288 -256 128 -256
WIRE 288 -192 288 -256
WIRE -416 -176 -416 -272
WIRE 128 -96 128 -256
WIRE 288 -64 288 -112
WIRE -416 -48 -416 -96
WIRE 528 -32 528 -64
WIRE 128 16 128 -16
WIRE 240 16 128 16
WIRE -464 32 -576 32
WIRE 128 64 128 16
WIRE 288 80 288 32
WIRE -416 96 -416 48
WIRE -576 112 -576 32
WIRE 80 144 -32 144
WIRE -32 192 -32 144
WIRE -576 224 -576 192
WIRE 128 224 128 160
WIRE -32 304 -32 272
FLAG 288 -288 +12V
FLAG 288 80 0
FLAG 528 -32 0
FLAG 528 -144 +12V
FLAG -32 304 0
FLAG 128 224 0
FLAG -416 -272 +12V
FLAG -416 96 0
FLAG -576 224 0
SYMBOL nmos 240 -64 R0
WINDOW 0 58 35 Left 2
WINDOW 3 62 64 Left 2
SYMATTR InstName M1
SYMATTR Value PMV15ENEA
SYMATTR Prefix X
SYMBOL res 272 -208 R0
SYMATTR InstName R1
SYMATTR Value 3
SYMBOL voltage 528 -160 R0
SYMATTR InstName V1
SYMATTR Value 12V
SYMBOL voltage -32 176 R0
WINDOW 123 0 0 Left 0
WINDOW 39 0 0 Left 0
WINDOW 3 -208 187 Left 2
SYMATTR InstName PWM
SYMATTR Value PULSE(0 3.3 0 0.0001m 0.0001m 0.01m 0.1m)
SYMBOL nmos 80 64 R0
WINDOW 3 62 65 Left 2
SYMATTR InstName M2
SYMATTR Value 2N7002NXAK
SYMATTR Prefix X
SYMBOL res 112 -112 R0
SYMATTR InstName R2
SYMATTR Value 2k
SYMBOL nmos -464 -48 R0
WINDOW 0 58 35 Left 2
WINDOW 3 62 64 Left 2
SYMATTR InstName M3
SYMATTR Value PMV15ENEA
SYMATTR Prefix X
SYMBOL res -432 -192 R0
SYMATTR InstName R3
SYMATTR Value 3
SYMBOL voltage -576 96 R0
WINDOW 123 0 0 Left 0
WINDOW 39 0 0 Left 0
WINDOW 3 -245 200 Left 2
SYMATTR InstName PWM1
SYMATTR Value PULSE(0 3.3 0 0.0001m 0.0001m 0.09m 0.1m)
TEXT 1264 32 Left 2 !.include ./PMV15ENEA.lib
TEXT 1264 80 Left 2 !.tran 0 0.5ms 0 0.000001ms
TEXT 1264 56 Left 2 !.include ./2N7002NXAK.lib
